data_image0
_chemical_formula_structural       NC2N2C5NCH10
_chemical_formula_sum              "N4 C8 H10"
_cell_length_a       30
_cell_length_b       30
_cell_length_c       30
_cell_angle_alpha    90
_cell_angle_beta     90
_cell_angle_gamma    90

_space_group_name_H-M_alt    "P 1"
_space_group_IT_number       1

loop_
  _space_group_symop_operation_xyz
  'x, y, z'

loop_
  _atom_site_type_symbol
  _atom_site_label
  _atom_site_symmetry_multiplicity
  _atom_site_fract_x
  _atom_site_fract_y
  _atom_site_fract_z
  _atom_site_occupancy
  N   N1        1.0  0.85735  0.01289  0.02670  1.0000
  C   C1        1.0  0.88958  0.00501  0.99093  1.0000
  C   C2        1.0  0.93649  0.00517  0.00853  1.0000
  N   N2        1.0  0.94767  0.01140  0.04991  1.0000
  N   N3        1.0  0.99513  0.00906  0.05276  1.0000
  C   C3        1.0  0.01093  0.00152  0.01315  1.0000
  C   C4        1.0  0.05764  0.99716  0.00355  1.0000
  C   C5        1.0  0.09322  0.99994  0.03288  1.0000
  C   C6        1.0  0.13305  0.99352  0.00852  1.0000
  C   C7        1.0  0.12117  0.98693  0.96477  1.0000
  N   N4        1.0  0.07563  0.98917  0.96203  1.0000
  C   C8        1.0  0.97540  0.99788  0.97862  1.0000
  H   H1        1.0  0.86255  0.98953  0.05102  1.0000
  H   H2        1.0  0.86567  0.04210  0.04226  1.0000
  H   H3        1.0  0.88304  0.97275  0.97523  1.0000
  H   H4        1.0  0.88650  0.03099  0.96552  1.0000
  H   H5        1.0  0.09038  0.00602  0.06839  1.0000
  H   H6        1.0  0.16670  0.99370  0.02158  1.0000
  H   H7        1.0  0.14121  0.98084  0.93540  1.0000
  H   H8        1.0  0.05814  0.98544  0.93346  1.0000
  H   H9        1.0  0.97804  0.02421  0.95367  1.0000
  H   H10       1.0  0.97452  0.96477  0.96358  1.0000
