data_image0
_chemical_formula_structural       OC4OC7OH12
_chemical_formula_sum              "O3 C11 H12"
_cell_length_a       30
_cell_length_b       30
_cell_length_c       30
_cell_angle_alpha    90
_cell_angle_beta     90
_cell_angle_gamma    90

_space_group_name_H-M_alt    "P 1"
_space_group_IT_number       1

loop_
  _space_group_symop_operation_xyz
  'x, y, z'

loop_
  _atom_site_type_symbol
  _atom_site_label
  _atom_site_symmetry_multiplicity
  _atom_site_fract_x
  _atom_site_fract_y
  _atom_site_fract_z
  _atom_site_occupancy
  O   O1        1.0  0.98016  0.92731  0.88247  1.0000
  C   C1        1.0  0.96792  0.93171  0.92099  1.0000
  C   C2        1.0  0.92424  0.95108  0.93546  1.0000
  C   C3        1.0  0.92131  0.93449  0.98288  1.0000
  C   C4        1.0  0.96985  0.93325  0.99636  1.0000
  O   O2        1.0  0.98294  0.97656  0.01041  1.0000
  C   C5        1.0  0.02759  0.97721  0.02655  1.0000
  C   C6        1.0  0.03866  0.02438  0.03955  1.0000
  C   C7        1.0  0.05255  0.05507  0.00716  1.0000
  C   C8        1.0  0.06225  0.09902  0.01890  1.0000
  C   C9        1.0  0.05792  0.11281  0.06305  1.0000
  C   C10       1.0  0.04366  0.08273  0.09545  1.0000
  C   C11       1.0  0.03396  0.03874  0.08377  1.0000
  O   O3        1.0  0.99282  0.91974  0.95712  1.0000
  H   H1        1.0  0.92602  0.98746  0.93372  1.0000
  H   H2        1.0  0.89680  0.93845  0.91512  1.0000
  H   H3        1.0  0.90745  0.90065  0.98290  1.0000
  H   H4        1.0  0.90058  0.95578  0.00398  1.0000
  H   H5        1.0  0.97521  0.90898  0.02314  1.0000
  H   H6        1.0  0.05083  0.96577  0.00076  1.0000
  H   H7        1.0  0.03083  0.95496  0.05537  1.0000
  H   H8        1.0  0.05563  0.04483  0.97252  1.0000
  H   H9        1.0  0.07306  0.12253  0.99353  1.0000
  H   H10       1.0  0.06534  0.14709  0.07217  1.0000
  H   H11       1.0  0.03995  0.09357  0.12981  1.0000
  H   H12       1.0  0.02248  0.01580  0.10937  1.0000
