data_image0
_chemical_formula_structural       ONC8NCOC4NCNC4OC2H18
_chemical_formula_sum              "O3 N4 C20 H18"
_cell_length_a       30
_cell_length_b       30
_cell_length_c       30
_cell_angle_alpha    90
_cell_angle_beta     90
_cell_angle_gamma    90

_space_group_name_H-M_alt    "P 1"
_space_group_IT_number       1

loop_
  _space_group_symop_operation_xyz
  'x, y, z'

loop_
  _atom_site_type_symbol
  _atom_site_label
  _atom_site_symmetry_multiplicity
  _atom_site_fract_x
  _atom_site_fract_y
  _atom_site_fract_z
  _atom_site_occupancy
  O   O1        1.0  0.94253  0.90089  0.87892  1.0000
  N   N1        1.0  0.94193  0.92610  0.91152  1.0000
  C   C1        1.0  0.98170  0.92000  0.94092  1.0000
  C   C2        1.0  0.96796  0.90774  0.98786  1.0000
  C   C3        1.0  0.95645  0.86277  0.99575  1.0000
  C   C4        1.0  0.94354  0.84808  0.03787  1.0000
  C   C5        1.0  0.94190  0.87801  0.07308  1.0000
  C   C6        1.0  0.95281  0.92265  0.06604  1.0000
  C   C7        1.0  0.96560  0.93860  0.02362  1.0000
  C   C8        1.0  0.97644  0.98823  0.01997  1.0000
  N   N2        1.0  0.02233  0.99523  0.00909  1.0000
  C   C9        1.0  0.05446  0.99533  0.04172  1.0000
  O   O2        1.0  0.04661  0.98703  0.08096  1.0000
  C   C10       1.0  0.10021  0.00779  0.02788  1.0000
  C   C11       1.0  0.13051  0.02320  0.05971  1.0000
  C   C12       1.0  0.17362  0.03461  0.04672  1.0000
  C   C13       1.0  0.18503  0.03000  0.00220  1.0000
  N   N3        1.0  0.15676  0.01480  0.97059  1.0000
  C   C14       1.0  0.11507  0.00380  0.98422  1.0000
  N   N4        1.0  0.95179  0.00813  0.98339  1.0000
  C   C15       1.0  0.94306  0.05394  0.98153  1.0000
  C   C16       1.0  0.91295  0.06903  0.94896  1.0000
  C   C17       1.0  0.90405  0.11440  0.94306  1.0000
  C   C18       1.0  0.92597  0.14536  0.96949  1.0000
  O   O3        1.0  0.91848  0.18994  0.96511  1.0000
  C   C19       1.0  0.95668  0.13158  0.00117  1.0000
  C   C20       1.0  0.96550  0.08612  0.00680  1.0000
  H   H1        1.0  0.00099  0.95076  0.93904  1.0000
  H   H2        1.0  0.00306  0.89376  0.92701  1.0000
  H   H3        1.0  0.95751  0.83870  0.96856  1.0000
  H   H4        1.0  0.93496  0.81328  0.04315  1.0000
  H   H5        1.0  0.93228  0.86672  0.10614  1.0000
  H   H6        1.0  0.95171  0.94528  0.09444  1.0000
  H   H7        1.0  0.96827  0.00482  0.05153  1.0000
  H   H8        1.0  0.02657  0.01278  0.98078  1.0000
  H   H9        1.0  0.12067  0.02629  0.09447  1.0000
  H   H10       1.0  0.19772  0.04673  0.07080  1.0000
  H   H11       1.0  0.21823  0.03849  0.99046  1.0000
  H   H12       1.0  0.09400  0.99080  0.95784  1.0000
  H   H13       1.0  0.92310  0.99091  0.97744  1.0000
  H   H14       1.0  0.89613  0.04514  0.92746  1.0000
  H   H15       1.0  0.88037  0.12462  0.91771  1.0000
  H   H16       1.0  0.89640  0.19448  0.94187  1.0000
  H   H17       1.0  0.97400  0.15610  0.02144  1.0000
  H   H18       1.0  0.99009  0.07696  0.03172  1.0000
