data_image0
_chemical_formula_structural       OSONC4OC2NC3NC17H29
_chemical_formula_sum              "O3 S1 N3 C26 H29"
_cell_length_a       30
_cell_length_b       30
_cell_length_c       30
_cell_angle_alpha    90
_cell_angle_beta     90
_cell_angle_gamma    90

_space_group_name_H-M_alt    "P 1"
_space_group_IT_number       1

loop_
  _space_group_symop_operation_xyz
  'x, y, z'

loop_
  _atom_site_type_symbol
  _atom_site_label
  _atom_site_symmetry_multiplicity
  _atom_site_fract_x
  _atom_site_fract_y
  _atom_site_fract_z
  _atom_site_occupancy
  O   O1        1.0  0.96791  0.98531  0.93031  1.0000
  S   S1        1.0  0.94733  0.02139  0.95480  1.0000
  O   O2        1.0  0.92840  0.05938  0.93180  1.0000
  N   N1        1.0  0.98444  0.04325  0.99162  1.0000
  C   C1        1.0  0.03087  0.03704  0.98122  1.0000
  C   C2        1.0  0.05087  0.99805  0.99675  1.0000
  C   C3        1.0  0.09603  0.99029  0.98935  1.0000
  C   C4        1.0  0.12177  0.02152  0.96637  1.0000
  O   O3        1.0  0.16687  0.01737  0.95943  1.0000
  C   C5        1.0  0.18783  0.97492  0.96572  1.0000
  C   C6        1.0  0.20368  0.96719  0.01311  1.0000
  N   N2        1.0  0.18513  0.93321  0.03615  1.0000
  C   C7        1.0  0.19996  0.92692  0.07805  1.0000
  C   C8        1.0  0.23224  0.95285  0.09770  1.0000
  C   C9        1.0  0.24945  0.98617  0.07142  1.0000
  N   N3        1.0  0.23609  0.99391  0.02929  1.0000
  C   C10       1.0  0.10169  0.06086  0.94927  1.0000
  C   C11       1.0  0.12654  0.09288  0.92520  1.0000
  C   C12       1.0  0.10685  0.13100  0.90740  1.0000
  C   C13       1.0  0.06160  0.13814  0.91318  1.0000
  C   C14       1.0  0.03625  0.10744  0.93719  1.0000
  C   C15       1.0  0.05542  0.06855  0.95596  1.0000
  C   C16       1.0  0.90404  0.99764  0.99338  1.0000
  C   C17       1.0  0.88748  0.03622  0.02325  1.0000
  C   C18       1.0  0.84524  0.03005  0.05091  1.0000
  C   C19       1.0  0.82883  0.98279  0.06053  1.0000
  C   C20       1.0  0.80505  0.96275  0.01995  1.0000
  C   C21       1.0  0.83697  0.94293  0.98559  1.0000
  C   C22       1.0  0.86538  0.90724  0.00824  1.0000
  C   C23       1.0  0.89416  0.92902  0.04415  1.0000
  C   C24       1.0  0.86502  0.95194  0.07936  1.0000
  C   C25       1.0  0.92679  0.96118  0.02182  1.0000
  C   C26       1.0  0.86672  0.97827  0.96343  1.0000
  H   H1        1.0  0.97672  0.07620  0.99628  1.0000
  H   H2        1.0  0.03156  0.97364  0.01522  1.0000
  H   H3        1.0  0.10998  0.95974  0.00270  1.0000
  H   H4        1.0  0.21763  0.97490  0.94443  1.0000
  H   H5        1.0  0.16689  0.94750  0.95348  1.0000
  H   H6        1.0  0.18442  0.89957  0.09600  1.0000
  H   H7        1.0  0.24348  0.94724  0.13145  1.0000
  H   H8        1.0  0.27521  0.00840  0.08382  1.0000
  H   H9        1.0  0.16206  0.08788  0.91979  1.0000
  H   H10       1.0  0.12691  0.15475  0.88882  1.0000
  H   H11       1.0  0.04579  0.16745  0.89894  1.0000
  H   H12       1.0  0.00080  0.11418  0.94031  1.0000
  H   H13       1.0  0.91433  0.04572  0.04628  1.0000
  H   H14       1.0  0.88228  0.06617  0.00290  1.0000
  H   H15       1.0  0.81805  0.04877  0.03487  1.0000
  H   H16       1.0  0.85051  0.04715  0.08297  1.0000
  H   H17       1.0  0.80344  0.98657  0.08666  1.0000
  H   H18       1.0  0.78285  0.93606  0.03171  1.0000
  H   H19       1.0  0.78326  0.98754  0.00413  1.0000
  H   H20       1.0  0.81684  0.92709  0.95947  1.0000
  H   H21       1.0  0.88642  0.89044  0.98351  1.0000
  H   H22       1.0  0.84407  0.88154  0.02312  1.0000
  H   H23       1.0  0.91375  0.90305  0.06084  1.0000
  H   H24       1.0  0.84830  0.92566  0.09870  1.0000
  H   H25       1.0  0.88598  0.97016  0.10321  1.0000
  H   H26       1.0  0.94899  0.94116  0.00077  1.0000
  H   H27       1.0  0.94844  0.97624  0.04717  1.0000
  H   H28       1.0  0.88203  0.96226  0.93430  1.0000
  H   H29       1.0  0.84609  0.00529  0.94989  1.0000
