data_image0
_chemical_formula_structural       OSOC3SC8H14
_chemical_formula_sum              "O2 S2 C11 H14"
_cell_length_a       30
_cell_length_b       30
_cell_length_c       30
_cell_angle_alpha    90
_cell_angle_beta     90
_cell_angle_gamma    90

_space_group_name_H-M_alt    "P 1"
_space_group_IT_number       1

loop_
  _space_group_symop_operation_xyz
  'x, y, z'

loop_
  _atom_site_type_symbol
  _atom_site_label
  _atom_site_symmetry_multiplicity
  _atom_site_fract_x
  _atom_site_fract_y
  _atom_site_fract_z
  _atom_site_occupancy
  O   O1        1.0  0.07098  0.11191  0.98499  1.0000
  S   S1        1.0  0.06746  0.07626  0.01731  1.0000
  O   O2        1.0  0.08725  0.07912  0.06124  1.0000
  C   C1        1.0  0.08550  0.02553  0.99200  1.0000
  C   C2        1.0  0.04284  0.00024  0.97928  1.0000
  C   C3        1.0  0.05033  0.94997  0.97374  1.0000
  S   S2        1.0  0.08864  0.93712  0.92856  1.0000
  C   C4        1.0  0.00935  0.01080  0.01732  1.0000
  C   C5        1.0  0.96241  0.99395  0.00988  1.0000
  C   C6        1.0  0.94163  0.96825  0.04300  1.0000
  C   C7        1.0  0.89833  0.95227  0.03703  1.0000
  C   C8        1.0  0.87517  0.96184  0.99798  1.0000
  C   C9        1.0  0.89526  0.98746  0.96490  1.0000
  C   C10       1.0  0.93856  0.00349  0.97079  1.0000
  C   C11       1.0  0.01030  0.06150  0.02321  1.0000
  H   H1        1.0  0.10625  0.03349  0.96315  1.0000
  H   H2        1.0  0.10515  0.00730  0.01675  1.0000
  H   H3        1.0  0.03021  0.01411  0.94783  1.0000
  H   H4        1.0  0.06344  0.93525  0.00447  1.0000
  H   H5        1.0  0.01886  0.93321  0.96607  1.0000
  H   H6        1.0  0.12627  0.94948  0.94930  1.0000
  H   H7        1.0  0.02254  0.99566  0.04801  1.0000
  H   H8        1.0  0.95892  0.96035  0.07390  1.0000
  H   H9        1.0  0.88264  0.93237  0.06294  1.0000
  H   H10       1.0  0.84145  0.94942  0.99335  1.0000
  H   H11       1.0  0.87714  0.99504  0.93443  1.0000
  H   H12       1.0  0.95316  0.02356  0.94436  1.0000
  H   H13       1.0  0.99828  0.07201  0.05596  1.0000
  H   H14       1.0  0.99167  0.07904  0.99721  1.0000
