data_image0
_chemical_formula_structural       OSONC4NC10H20
_chemical_formula_sum              "O2 S1 N2 C14 H20"
_cell_length_a       30
_cell_length_b       30
_cell_length_c       30
_cell_angle_alpha    90
_cell_angle_beta     90
_cell_angle_gamma    90

_space_group_name_H-M_alt    "P 1"
_space_group_IT_number       1

loop_
  _space_group_symop_operation_xyz
  'x, y, z'

loop_
  _atom_site_type_symbol
  _atom_site_label
  _atom_site_symmetry_multiplicity
  _atom_site_fract_x
  _atom_site_fract_y
  _atom_site_fract_z
  _atom_site_occupancy
  O   O1        1.0  0.05126  0.95165  0.91417  1.0000
  S   S1        1.0  0.00778  0.96938  0.92544  1.0000
  O   O2        1.0  0.97853  0.98481  0.89017  1.0000
  N   N1        1.0  0.98129  0.92635  0.94983  1.0000
  C   C1        1.0  0.93315  0.92995  0.95799  1.0000
  C   C2        1.0  0.92346  0.91555  0.00579  1.0000
  C   C3        1.0  0.93279  0.95092  0.04166  1.0000
  C   C4        1.0  0.97759  0.97525  0.03744  1.0000
  N   N2        1.0  0.97477  0.01215  0.00538  1.0000
  C   C5        1.0  0.96815  0.05580  0.02709  1.0000
  C   C6        1.0  0.92179  0.07097  0.03882  1.0000
  C   C7        1.0  0.94649  0.09321  0.00155  1.0000
  C   C8        1.0  0.01094  0.01282  0.97081  1.0000
  C   C9        1.0  0.05849  0.01779  0.98849  1.0000
  C   C10       1.0  0.07714  0.06082  0.99117  1.0000
  C   C11       1.0  0.11995  0.06754  0.00815  1.0000
  C   C12       1.0  0.14496  0.03140  0.02294  1.0000
  C   C13       1.0  0.12715  0.98862  0.02077  1.0000
  C   C14       1.0  0.08427  0.98188  0.00384  1.0000
  H   H1        1.0  0.99313  0.89634  0.93913  1.0000
  H   H2        1.0  0.91633  0.90733  0.93476  1.0000
  H   H3        1.0  0.92010  0.96344  0.95188  1.0000
  H   H4        1.0  0.88819  0.90624  0.00835  1.0000
  H   H5        1.0  0.94263  0.88540  0.01370  1.0000
  H   H6        1.0  0.93178  0.93418  0.07418  1.0000
  H   H7        1.0  0.90524  0.97489  0.04219  1.0000
  H   H8        1.0  0.98721  0.98802  0.07037  1.0000
  H   H9        1.0  0.00301  0.95057  0.02907  1.0000
  H   H10       1.0  0.99438  0.06550  0.05030  1.0000
  H   H11       1.0  0.89361  0.05027  0.02984  1.0000
  H   H12       1.0  0.91740  0.08931  0.06963  1.0000
  H   H13       1.0  0.95877  0.12673  0.00702  1.0000
  H   H14       1.0  0.93486  0.08702  0.96790  1.0000
  H   H15       1.0  0.00449  0.04247  0.95016  1.0000
  H   H16       1.0  0.05822  0.08972  0.98002  1.0000
  H   H17       1.0  0.13377  0.10100  0.00978  1.0000
  H   H18       1.0  0.17836  0.03652  0.03600  1.0000
  H   H19       1.0  0.14674  0.96028  0.03201  1.0000
  H   H20       1.0  0.07182  0.94787  0.00221  1.0000
